Version 4
SHEET 1 1964 696
WIRE 768 -80 624 -80
WIRE 848 -80 768 -80
WIRE 1120 -80 1072 -80
WIRE 1248 -80 1184 -80
WIRE 624 -48 624 -80
WIRE 768 -48 768 -80
WIRE 848 32 848 -80
WIRE 928 32 928 -32
WIRE 928 32 848 32
WIRE 1072 32 1072 -80
WIRE 1072 32 928 32
WIRE 1120 32 1072 32
WIRE 1248 32 1248 -80
WIRE 1248 32 1184 32
WIRE 1408 32 1248 32
WIRE 1536 32 1408 32
WIRE 1568 32 1536 32
WIRE 1408 48 1408 32
WIRE 32 80 32 32
WIRE 96 80 32 80
WIRE 256 80 176 80
WIRE 384 80 384 16
WIRE 384 80 336 80
WIRE 448 80 384 80
WIRE 624 80 624 16
WIRE 624 80 528 80
WIRE 928 80 928 32
WIRE 1536 80 1536 32
WIRE 256 96 256 80
WIRE 336 96 336 80
WIRE 1072 96 1072 32
WIRE 1248 96 1248 32
WIRE 32 112 32 80
WIRE 1536 192 1536 160
WIRE 336 208 336 176
WIRE 768 208 768 16
WIRE 768 208 336 208
WIRE 928 208 928 144
WIRE 928 208 848 208
WIRE 1072 208 1072 160
WIRE 1072 208 928 208
WIRE 1152 208 1152 80
WIRE 1152 208 1072 208
WIRE 1248 208 1248 160
WIRE 1248 208 1152 208
WIRE 1408 208 1408 192
WIRE 1408 208 1248 208
WIRE 1152 224 1152 208
WIRE 32 256 32 192
WIRE 144 256 32 256
WIRE 256 256 256 176
WIRE 256 256 144 256
WIRE 624 256 624 80
WIRE 768 256 768 208
WIRE 144 352 144 336
WIRE 624 352 624 320
WIRE 768 352 768 320
WIRE 768 352 624 352
WIRE 848 352 848 208
WIRE 848 352 768 352
FLAG 144 352 0
FLAG 1152 224 0
FLAG 1568 32 Out
IOPIN 1568 32 Out
FLAG 1536 192 0
FLAG 32 32 Vin
FLAG 384 16 Vs
FLAG 928 -32 V+
SYMBOL res 192 64 R90
WINDOW 0 0 56 VBottom 2
WINDOW 3 32 56 VTop 2
SYMATTR InstName R2
SYMATTR Value 1m
SYMBOL voltage 32 96 R0
WINDOW 123 0 0 Left 0
WINDOW 39 24 124 Left 2
SYMATTR InstName V1
SYMATTR Value SINE(0 325 50)
SYMBOL res 128 240 R0
SYMATTR InstName R3
SYMATTR Value 1G
SYMBOL ind2 272 80 M0
SYMATTR InstName L1
SYMATTR Value 1500µ
SYMATTR Type ind
SYMBOL ind2 320 80 R0
SYMATTR InstName L2
SYMATTR Value 2µ
SYMATTR Type ind
SYMBOL diode 640 16 R180
WINDOW 0 24 64 Left 2
WINDOW 3 24 0 Left 2
SYMATTR InstName D1
SYMATTR Value 1N4001
SYMBOL diode 784 16 R180
WINDOW 0 24 64 Left 2
WINDOW 3 24 0 Left 2
SYMATTR InstName D2
SYMATTR Value 1N4001
SYMBOL diode 640 320 R180
WINDOW 0 24 64 Left 2
WINDOW 3 24 0 Left 2
SYMATTR InstName D3
SYMATTR Value 1N4001
SYMBOL diode 784 320 R180
WINDOW 0 24 64 Left 2
WINDOW 3 24 0 Left 2
SYMATTR InstName D4
SYMATTR Value 1N4001
SYMBOL res 544 64 R90
WINDOW 0 0 56 VBottom 2
WINDOW 3 32 56 VTop 2
SYMATTR InstName R1
SYMATTR Value 1m
SYMBOL polcap 912 80 R0
WINDOW 3 24 56 Left 2
SYMATTR Value 2200µ
SYMATTR InstName C1
SYMATTR Description Capacitor
SYMATTR Type cap
SYMATTR SpiceLine V=16 Irms=1.55 Rser=0.06 Lser=0
SYMBOL AutoGenerated\\LM7805 1152 48 R0
SYMATTR InstName U1
SYMATTR SpiceModel LM7805
SYMBOL res 1392 32 R0
SYMATTR InstName R4
SYMATTR Value 1k
SYMBOL LED 1392 128 R0
SYMATTR InstName D5
SYMBOL cap 1056 96 R0
SYMATTR InstName C2
SYMATTR Value 0.33µ
SYMATTR SpiceLine V=16 Irms=813m Rser=0.0897233 Lser=0 mfg="KEMET" pn="C1206C334K4RAC" type="X7R"
SYMBOL cap 1232 96 R0
SYMATTR InstName C3
SYMATTR Value 0.1µ
SYMATTR SpiceLine V=10 Irms=0 Rser=0 Lser=0 mfg="Murata" pn="GRM022R61A103KE19" type="X5R"
SYMBOL diode 1184 -96 R90
WINDOW 0 0 32 VBottom 2
WINDOW 3 32 32 VTop 2
SYMATTR InstName D6
SYMATTR Value 1N4148
SYMBOL current 1536 80 R0
WINDOW 123 0 0 Left 0
WINDOW 39 0 0 Left 0
SYMATTR InstName I1
SYMATTR Value {Iload}
TEXT 256 40 Left 2 !K L1 L2 1
TEXT 8 408 Left 2 !.tran 0.1
TEXT 0 448 Left 2 ;.include C:\\Program Files\\LTC\\LTspiceXVII\\lib\\sub\\1N4001.sub
TEXT 8 496 Left 2 !.step param Iload 0.05 0.5 0.1
TEXT 8 544 Left 2 !.meas Pin AVG -V(vs)*I(R1)
TEXT 8 592 Left 2 !.meas Pout AVG V(OUT)*I(I1)
TEXT 8 632 Left 2 !.meas Eff param Pout/Pin
TEXT 8 680 Left 2 !.meas Plm AVG -(V(v+)-V(out))*Ix(U1:O)
TEXT 368 496 Left 2 ;.step param Rload 10 100 20
TEXT 792 432 Left 2 !.MODEL 1N4001 D\n+IS=0.00025004137358123 RS=0.0011642145238024 N=4.2189525182966 EG=0.6\n+XTI=0.05 BV=50 IBV=5e-08 CJO=1e-11\n+VJ=1 M=0.5 FC=0.5 TT=1e-09\n+KF=0 AF=1
